LTspice 24.1.9 for Windows
Circuit: D:\0___LEARN\__VLSI__\00_Basic_electronics\3_diode\Half_wave_rectifier.net
Start Time: Tue Jul 15 15:12:17 2025
solver = Normal
Maximum thread count: 12
tnom = 27
temp = 27
method = trap
.OP point found by inspection.
Total elapsed time: 0.133 seconds.

Files loaded:
D:\0___LEARN\__VLSI__\00_Basic_electronics\3_diode\Half_wave_rectifier.net
C:\Users\jayshree\AppData\Local\LTspice\lib\cmp\standard.dio

