LTspice 24.1.9 for Windows
Circuit: D:\0___LEARN\__VLSI__\00_Basic_electronics\3_diode\Clipper Schematics\Clipper_parallel_circuit_without_bias.net
Start Time: Fri Jul 18 11:55:04 2025
solver = Normal
Maximum thread count: 12
tnom = 27
temp = 27
method = trap
.OP point found by inspection.
Total elapsed time: 0.143 seconds.

Files loaded:
D:\0___LEARN\__VLSI__\00_Basic_electronics\3_diode\Clipper Schematics\Clipper_parallel_circuit_without_bias.net
C:\Users\jayshree\AppData\Local\LTspice\lib\cmp\standard.dio

