LTspice 24.1.9 for Windows
Circuit: C:\Users\jayshree\Documents\LTspice\Draft1.net
Start Time: Tue Jul  1 18:40:16 2025
solver = Normal
Maximum thread count: 12
tnom = 27
temp = 27
method = trap
.OP point found by inspection.
Total elapsed time: 0.062 seconds.

Files loaded:
C:\Users\jayshree\Documents\LTspice\Draft1.net

