LTspice 24.1.9 for Windows
Circuit: C:\Users\jayshree\Documents\LTspice\RC_HPF_as_differentiator.net
Start Time: Thu Jul  3 12:06:31 2025
solver = Normal
Maximum thread count: 12
tnom = 27
temp = 27
method = trap
.OP point found by inspection.
Total elapsed time: 0.092 seconds.

Files loaded:
C:\Users\jayshree\Documents\LTspice\RC_HPF_as_differentiator.net

