LTspice 24.1.9 for Windows
Circuit: C:\Users\jayshree\Documents\LTspice\RC_LPF_as_Integrator.net
Start Time: Thu Jul  3 12:20:20 2025
solver = Normal
Maximum thread count: 12
tnom = 27
temp = 27
method = trap
.OP point found by inspection.
Total elapsed time: 0.066 seconds.

Files loaded:
C:\Users\jayshree\Documents\LTspice\RC_LPF_as_Integrator.net

