LTspice 24.1.9 for Windows
Circuit: D:\0___LEARN\__VLSI__\00_Basic_electronics\4_transistor\BJT as switch\BJT_as_switch.net
Start Time: Mon Aug  4 14:00:03 2025
solver = Normal
Maximum thread count: 12
tnom = 27
temp = 27
method = trap
Direct Newton iteration for .op point succeeded.
Total elapsed time: 0.055 seconds.

Files loaded:
D:\0___LEARN\__VLSI__\00_Basic_electronics\4_transistor\BJT as switch\BJT_as_switch.net
C:\Users\jayshree\AppData\Local\LTspice\lib\cmp\standard.bjt

