LTspice 24.1.9 for Windows
Circuit: D:\0___LEARN\__VLSI__\00_Basic_electronics\3_diode\Clipper Schematics\Zener_clipper.net
Start Time: Fri Jul 18 12:04:58 2025
solver = Normal
Maximum thread count: 12
tnom = 27
temp = 27
method = trap
.OP point found by inspection.
Total elapsed time: 0.127 seconds.

Files loaded:
D:\0___LEARN\__VLSI__\00_Basic_electronics\3_diode\Clipper Schematics\Zener_clipper.net
C:\Users\jayshree\AppData\Local\LTspice\lib\cmp\standard.dio

