LTspice 24.1.9 for Windows
Circuit: D:\0___LEARN\__VLSI__\00_Basic_electronics\4_transistor\Logic Gates\EVERY GATE USING NAND GATE\5_XOR_gate_using_NAND\XOR_gate_using_NAND_gate.net
Start Time: Wed Aug  6 15:38:18 2025
solver = Normal
Maximum thread count: 12
tnom = 27
temp = 27
method = trap
Direct Newton iteration for .op point succeeded.
Total elapsed time: 0.156 seconds.

Files loaded:
D:\0___LEARN\__VLSI__\00_Basic_electronics\4_transistor\Logic Gates\EVERY GATE USING NAND GATE\5_XOR_gate_using_NAND\XOR_gate_using_NAND_gate.net
C:\Users\jayshree\AppData\Local\LTspice\lib\cmp\standard.bjt

