LTspice 24.1.9 for Windows
Circuit: D:\0___LEARN\__VLSI__\00_Basic_electronics\4_transistor\CB config\CB_config_DC_AC_analysis.net
Start Time: Tue Jul 29 12:50:16 2025
solver = Normal
Maximum thread count: 12
tnom = 27
temp = 27
method = trap
Direct Newton iteration for .op point succeeded.
Total elapsed time: 0.074 seconds.

Files loaded:
D:\0___LEARN\__VLSI__\00_Basic_electronics\4_transistor\CB config\CB_config_DC_AC_analysis.net
C:\Users\jayshree\AppData\Local\LTspice\lib\cmp\standard.bjt

