LTspice 24.1.9 for Windows
Circuit: D:\0___LEARN\__VLSI__\00_Basic_electronics\3_diode\Clamper Schematics\Clamper_negative_circuit_without_bias_with_pulse_input.net
Start Time: Fri Jul 18 13:09:43 2025
solver = Normal
Maximum thread count: 12
tnom = 27
temp = 27
method = trap
Direct Newton iteration for .op point succeeded.
Total elapsed time: 0.110 seconds.

Files loaded:
D:\0___LEARN\__VLSI__\00_Basic_electronics\3_diode\Clamper Schematics\Clamper_negative_circuit_without_bias_with_pulse_input.net
C:\Users\jayshree\AppData\Local\LTspice\lib\cmp\standard.dio

