LTspice 24.1.9 for Windows
Circuit: D:\0___LEARN\__VLSI__\00_Basic_electronics\3_diode\Clamper Schematics\Positive__clamper_with_bias.net
Start Time: Fri Jul 18 14:41:54 2025
solver = Normal
Maximum thread count: 12
tnom = 27
temp = 27
method = trap
Direct Newton iteration for .op point succeeded.
Total elapsed time: 0.101 seconds.

Files loaded:
D:\0___LEARN\__VLSI__\00_Basic_electronics\3_diode\Clamper Schematics\Positive__clamper_with_bias.net
C:\Users\jayshree\AppData\Local\LTspice\lib\cmp\standard.dio

