LTspice 24.1.9 for Windows
Circuit: D:\0___LEARN\__VLSI__\00_Basic_electronics\4_transistor\Logic Gates\EVERY GATE USING NOR GATE\6_XNOR_gate_using_NOR\XNOR_using_NOR_gate.net
Start Time: Thu Aug 21 18:33:27 2025
solver = Normal
Maximum thread count: 12
tnom = 27
temp = 27
method = trap
Direct Newton iteration for .op point succeeded.
Total elapsed time: 0.126 seconds.

Files loaded:
D:\0___LEARN\__VLSI__\00_Basic_electronics\4_transistor\Logic Gates\EVERY GATE USING NOR GATE\6_XNOR_gate_using_NOR\XNOR_using_NOR_gate.net
C:\Users\jayshree\AppData\Local\LTspice\lib\cmp\standard.bjt

