LTspice 24.1.9 for Windows
Circuit: D:\0___LEARN\__VLSI__\00_Basic_electronics\3_diode\Clipper Schematics\series clipper\Series_Negative_clipper_with_bias.net
Start Time: Fri Jul 18 12:22:42 2025
solver = Normal
Maximum thread count: 12
tnom = 27
temp = 27
method = trap
Direct Newton iteration for .op point succeeded.
Total elapsed time: 0.072 seconds.

Files loaded:
D:\0___LEARN\__VLSI__\00_Basic_electronics\3_diode\Clipper Schematics\series clipper\Series_Negative_clipper_with_bias.net
C:\Users\jayshree\AppData\Local\LTspice\lib\cmp\standard.dio

