LTspice 24.1.9 for Windows
Circuit: D:\0___LEARN\__VLSI__\00_Basic_electronics\4_transistor\CE config\CE_config_AC_bias.net
Start Time: Tue Jul 29 13:01:31 2025
solver = Normal
Maximum thread count: 12
tnom = 27
temp = 27
method = trap
Direct Newton iteration for .op point succeeded.
Total elapsed time: 0.095 seconds.

Files loaded:
D:\0___LEARN\__VLSI__\00_Basic_electronics\4_transistor\CE config\CE_config_AC_bias.net
C:\Users\jayshree\AppData\Local\LTspice\lib\cmp\standard.bjt

