LTspice 24.1.9 for Windows
Circuit: D:\0___LEARN\__VLSI__\00_Basic_electronics\4_transistor\CC config\CC_config_DC_AC_analysis.net
Start Time: Tue Jul 29 14:53:44 2025
solver = Normal
Maximum thread count: 12
tnom = 27
temp = 27
method = trap
Direct Newton iteration for .op point succeeded.
Total elapsed time: 0.128 seconds.

Files loaded:
D:\0___LEARN\__VLSI__\00_Basic_electronics\4_transistor\CC config\CC_config_DC_AC_analysis.net
C:\Users\jayshree\AppData\Local\LTspice\lib\cmp\standard.bjt

