LTspice 24.1.9 for Windows
Circuit: D:\0___LEARN\__VLSI__\00_Basic_electronics\4_transistor\Logic Gates\7_XNOR_gate\BJT_as_XNOR_gate.net
Start Time: Wed Aug  6 11:42:51 2025
solver = Normal
Maximum thread count: 12
tnom = 27
temp = 27
method = trap
Direct Newton iteration for .op point succeeded.
Total elapsed time: 0.183 seconds.

Files loaded:
D:\0___LEARN\__VLSI__\00_Basic_electronics\4_transistor\Logic Gates\7_XNOR_gate\BJT_as_XNOR_gate.net
C:\Users\jayshree\AppData\Local\LTspice\lib\cmp\standard.bjt

